Circuit: * D:\workspace\EMAT\POC\Simulation\shev_pulse.asc

WARNING: Less than two connections to node NC_01.  This node is used by D1.
WARNING: Less than two connections to node NC_02.  This node is used by D2.
WARNING: Less than two connections to node N008.  This node is used by M2.
WARNING: Less than two connections to node NC_03.  This node is used by R7.
Direct Newton iteration for .op point succeeded.

Date: Fri Apr 29 08:47:35 2016
Total elapsed time: 1.363 seconds.

tnom = 27
temp = 27
method = modified trap
totiter = 121942
traniter = 121916
tranpoints = 37371
accept = 26773
rejected = 10598
matrix size = 46
fillins = 27
solver = Normal
Matrix Compiler1: 3.90 KB object code size  0.8/0.4/[0.2]
Matrix Compiler2: off  [0.2]/0.4/0.4


